
---------- Begin Simulation Statistics ----------
sim_seconds                                  0.250000                       # Number of seconds simulated
sim_ticks                                249999693500                       # Number of ticks simulated
final_tick                               249999693500                       # Number of ticks from beginning of simulation (restored from checkpoints and never reset)
sim_freq                                 1000000000000                       # Frequency of simulated ticks
host_inst_rate                                 625423                       # Simulator instruction rate (inst/s)
host_op_rate                                  1355081                       # Simulator op (including micro ops) rate (op/s)
host_tick_rate                              781777133                       # Simulator tick rate (ticks/s)
host_mem_usage                                 640072                       # Number of bytes of host memory used
host_seconds                                   319.78                       # Real time elapsed on the host
sim_insts                                   200000000                       # Number of instructions simulated
sim_ops                                     433332797                       # Number of ops (including micro ops) simulated
system.voltage_domain.voltage                       1                       # Voltage in Volts
system.clk_domain.clock                          1000                       # Clock period in ticks
system.mem_ctrls.bytes_read::cpu.inst           11392                       # Number of bytes read from this memory
system.mem_ctrls.bytes_read::cpu.data       133339264                       # Number of bytes read from this memory
system.mem_ctrls.bytes_read::total          133350656                       # Number of bytes read from this memory
system.mem_ctrls.bytes_inst_read::cpu.inst        11392                       # Number of instructions bytes read from this memory
system.mem_ctrls.bytes_inst_read::total         11392                       # Number of instructions bytes read from this memory
system.mem_ctrls.bytes_written::writebacks    132288576                       # Number of bytes written to this memory
system.mem_ctrls.bytes_written::total       132288576                       # Number of bytes written to this memory
system.mem_ctrls.num_reads::cpu.inst              178                       # Number of read requests responded to by this memory
system.mem_ctrls.num_reads::cpu.data          2083426                       # Number of read requests responded to by this memory
system.mem_ctrls.num_reads::total             2083604                       # Number of read requests responded to by this memory
system.mem_ctrls.num_writes::writebacks       2067009                       # Number of write requests responded to by this memory
system.mem_ctrls.num_writes::total            2067009                       # Number of write requests responded to by this memory
system.mem_ctrls.bw_read::cpu.inst              45568                       # Total read bandwidth from this memory (bytes/s)
system.mem_ctrls.bw_read::cpu.data          533357710                       # Total read bandwidth from this memory (bytes/s)
system.mem_ctrls.bw_read::total             533403278                       # Total read bandwidth from this memory (bytes/s)
system.mem_ctrls.bw_inst_read::cpu.inst         45568                       # Instruction read bandwidth from this memory (bytes/s)
system.mem_ctrls.bw_inst_read::total            45568                       # Instruction read bandwidth from this memory (bytes/s)
system.mem_ctrls.bw_write::writebacks       529154953                       # Write bandwidth from this memory (bytes/s)
system.mem_ctrls.bw_write::total            529154953                       # Write bandwidth from this memory (bytes/s)
system.mem_ctrls.bw_total::writebacks       529154953                       # Total bandwidth to/from this memory (bytes/s)
system.mem_ctrls.bw_total::cpu.inst             45568                       # Total bandwidth to/from this memory (bytes/s)
system.mem_ctrls.bw_total::cpu.data         533357710                       # Total bandwidth to/from this memory (bytes/s)
system.mem_ctrls.bw_total::total           1062558231                       # Total bandwidth to/from this memory (bytes/s)
system.mem_ctrls.readReqs                           0                       # Number of read requests accepted
system.mem_ctrls.writeReqs                          0                       # Number of write requests accepted
system.mem_ctrls.readBursts                         0                       # Number of DRAM read bursts, including those serviced by the write queue
system.mem_ctrls.writeBursts                        0                       # Number of DRAM write bursts, including those merged in the write queue
system.mem_ctrls.bytesReadDRAM                      0                       # Total number of bytes read from DRAM
system.mem_ctrls.bytesReadWrQ                       0                       # Total number of bytes read from write queue
system.mem_ctrls.bytesWritten                       0                       # Total number of bytes written to DRAM
system.mem_ctrls.bytesReadSys                       0                       # Total read bytes from the system interface side
system.mem_ctrls.bytesWrittenSys                    0                       # Total written bytes from the system interface side
system.mem_ctrls.servicedByWrQ                      0                       # Number of DRAM read bursts serviced by the write queue
system.mem_ctrls.mergedWrBursts                     0                       # Number of DRAM write bursts merged with an existing one
system.mem_ctrls.neitherReadNorWriteReqs            0                       # Number of requests that are neither read nor write
system.mem_ctrls.perBankRdBursts::0                 0                       # Per bank write bursts
system.mem_ctrls.perBankRdBursts::1                 0                       # Per bank write bursts
system.mem_ctrls.perBankRdBursts::2                 0                       # Per bank write bursts
system.mem_ctrls.perBankRdBursts::3                 0                       # Per bank write bursts
system.mem_ctrls.perBankRdBursts::4                 0                       # Per bank write bursts
system.mem_ctrls.perBankRdBursts::5                 0                       # Per bank write bursts
system.mem_ctrls.perBankRdBursts::6                 0                       # Per bank write bursts
system.mem_ctrls.perBankRdBursts::7                 0                       # Per bank write bursts
system.mem_ctrls.perBankRdBursts::8                 0                       # Per bank write bursts
system.mem_ctrls.perBankRdBursts::9                 0                       # Per bank write bursts
system.mem_ctrls.perBankRdBursts::10                0                       # Per bank write bursts
system.mem_ctrls.perBankRdBursts::11                0                       # Per bank write bursts
system.mem_ctrls.perBankRdBursts::12                0                       # Per bank write bursts
system.mem_ctrls.perBankRdBursts::13                0                       # Per bank write bursts
system.mem_ctrls.perBankRdBursts::14                0                       # Per bank write bursts
system.mem_ctrls.perBankRdBursts::15                0                       # Per bank write bursts
system.mem_ctrls.perBankWrBursts::0                 0                       # Per bank write bursts
system.mem_ctrls.perBankWrBursts::1                 0                       # Per bank write bursts
system.mem_ctrls.perBankWrBursts::2                 0                       # Per bank write bursts
system.mem_ctrls.perBankWrBursts::3                 0                       # Per bank write bursts
system.mem_ctrls.perBankWrBursts::4                 0                       # Per bank write bursts
system.mem_ctrls.perBankWrBursts::5                 0                       # Per bank write bursts
system.mem_ctrls.perBankWrBursts::6                 0                       # Per bank write bursts
system.mem_ctrls.perBankWrBursts::7                 0                       # Per bank write bursts
system.mem_ctrls.perBankWrBursts::8                 0                       # Per bank write bursts
system.mem_ctrls.perBankWrBursts::9                 0                       # Per bank write bursts
system.mem_ctrls.perBankWrBursts::10                0                       # Per bank write bursts
system.mem_ctrls.perBankWrBursts::11                0                       # Per bank write bursts
system.mem_ctrls.perBankWrBursts::12                0                       # Per bank write bursts
system.mem_ctrls.perBankWrBursts::13                0                       # Per bank write bursts
system.mem_ctrls.perBankWrBursts::14                0                       # Per bank write bursts
system.mem_ctrls.perBankWrBursts::15                0                       # Per bank write bursts
system.mem_ctrls.numRdRetry                         0                       # Number of times read queue was full causing retry
system.mem_ctrls.numWrRetry                         0                       # Number of times write queue was full causing retry
system.mem_ctrls.totGap                             0                       # Total gap between requests
system.mem_ctrls.readPktSize::0                     0                       # Read request sizes (log2)
system.mem_ctrls.readPktSize::1                     0                       # Read request sizes (log2)
system.mem_ctrls.readPktSize::2                     0                       # Read request sizes (log2)
system.mem_ctrls.readPktSize::3                     0                       # Read request sizes (log2)
system.mem_ctrls.readPktSize::4                     0                       # Read request sizes (log2)
system.mem_ctrls.readPktSize::5                     0                       # Read request sizes (log2)
system.mem_ctrls.readPktSize::6                     0                       # Read request sizes (log2)
system.mem_ctrls.writePktSize::0                    0                       # Write request sizes (log2)
system.mem_ctrls.writePktSize::1                    0                       # Write request sizes (log2)
system.mem_ctrls.writePktSize::2                    0                       # Write request sizes (log2)
system.mem_ctrls.writePktSize::3                    0                       # Write request sizes (log2)
system.mem_ctrls.writePktSize::4                    0                       # Write request sizes (log2)
system.mem_ctrls.writePktSize::5                    0                       # Write request sizes (log2)
system.mem_ctrls.writePktSize::6                    0                       # Write request sizes (log2)
system.mem_ctrls.rdQLenPdf::0                       0                       # What read queue length does an incoming req see
system.mem_ctrls.rdQLenPdf::1                       0                       # What read queue length does an incoming req see
system.mem_ctrls.rdQLenPdf::2                       0                       # What read queue length does an incoming req see
system.mem_ctrls.rdQLenPdf::3                       0                       # What read queue length does an incoming req see
system.mem_ctrls.rdQLenPdf::4                       0                       # What read queue length does an incoming req see
system.mem_ctrls.rdQLenPdf::5                       0                       # What read queue length does an incoming req see
system.mem_ctrls.rdQLenPdf::6                       0                       # What read queue length does an incoming req see
system.mem_ctrls.rdQLenPdf::7                       0                       # What read queue length does an incoming req see
system.mem_ctrls.rdQLenPdf::8                       0                       # What read queue length does an incoming req see
system.mem_ctrls.rdQLenPdf::9                       0                       # What read queue length does an incoming req see
system.mem_ctrls.rdQLenPdf::10                      0                       # What read queue length does an incoming req see
system.mem_ctrls.rdQLenPdf::11                      0                       # What read queue length does an incoming req see
system.mem_ctrls.rdQLenPdf::12                      0                       # What read queue length does an incoming req see
system.mem_ctrls.rdQLenPdf::13                      0                       # What read queue length does an incoming req see
system.mem_ctrls.rdQLenPdf::14                      0                       # What read queue length does an incoming req see
system.mem_ctrls.rdQLenPdf::15                      0                       # What read queue length does an incoming req see
system.mem_ctrls.rdQLenPdf::16                      0                       # What read queue length does an incoming req see
system.mem_ctrls.rdQLenPdf::17                      0                       # What read queue length does an incoming req see
system.mem_ctrls.rdQLenPdf::18                      0                       # What read queue length does an incoming req see
system.mem_ctrls.rdQLenPdf::19                      0                       # What read queue length does an incoming req see
system.mem_ctrls.rdQLenPdf::20                      0                       # What read queue length does an incoming req see
system.mem_ctrls.rdQLenPdf::21                      0                       # What read queue length does an incoming req see
system.mem_ctrls.rdQLenPdf::22                      0                       # What read queue length does an incoming req see
system.mem_ctrls.rdQLenPdf::23                      0                       # What read queue length does an incoming req see
system.mem_ctrls.rdQLenPdf::24                      0                       # What read queue length does an incoming req see
system.mem_ctrls.rdQLenPdf::25                      0                       # What read queue length does an incoming req see
system.mem_ctrls.rdQLenPdf::26                      0                       # What read queue length does an incoming req see
system.mem_ctrls.rdQLenPdf::27                      0                       # What read queue length does an incoming req see
system.mem_ctrls.rdQLenPdf::28                      0                       # What read queue length does an incoming req see
system.mem_ctrls.rdQLenPdf::29                      0                       # What read queue length does an incoming req see
system.mem_ctrls.rdQLenPdf::30                      0                       # What read queue length does an incoming req see
system.mem_ctrls.rdQLenPdf::31                      0                       # What read queue length does an incoming req see
system.mem_ctrls.wrQLenPdf::0                       0                       # What write queue length does an incoming req see
system.mem_ctrls.wrQLenPdf::1                       0                       # What write queue length does an incoming req see
system.mem_ctrls.wrQLenPdf::2                       0                       # What write queue length does an incoming req see
system.mem_ctrls.wrQLenPdf::3                       0                       # What write queue length does an incoming req see
system.mem_ctrls.wrQLenPdf::4                       0                       # What write queue length does an incoming req see
system.mem_ctrls.wrQLenPdf::5                       0                       # What write queue length does an incoming req see
system.mem_ctrls.wrQLenPdf::6                       0                       # What write queue length does an incoming req see
system.mem_ctrls.wrQLenPdf::7                       0                       # What write queue length does an incoming req see
system.mem_ctrls.wrQLenPdf::8                       0                       # What write queue length does an incoming req see
system.mem_ctrls.wrQLenPdf::9                       0                       # What write queue length does an incoming req see
system.mem_ctrls.wrQLenPdf::10                      0                       # What write queue length does an incoming req see
system.mem_ctrls.wrQLenPdf::11                      0                       # What write queue length does an incoming req see
system.mem_ctrls.wrQLenPdf::12                      0                       # What write queue length does an incoming req see
system.mem_ctrls.wrQLenPdf::13                      0                       # What write queue length does an incoming req see
system.mem_ctrls.wrQLenPdf::14                      0                       # What write queue length does an incoming req see
system.mem_ctrls.wrQLenPdf::15                      0                       # What write queue length does an incoming req see
system.mem_ctrls.wrQLenPdf::16                      0                       # What write queue length does an incoming req see
system.mem_ctrls.wrQLenPdf::17                      0                       # What write queue length does an incoming req see
system.mem_ctrls.wrQLenPdf::18                      0                       # What write queue length does an incoming req see
system.mem_ctrls.wrQLenPdf::19                      0                       # What write queue length does an incoming req see
system.mem_ctrls.wrQLenPdf::20                      0                       # What write queue length does an incoming req see
system.mem_ctrls.wrQLenPdf::21                      0                       # What write queue length does an incoming req see
system.mem_ctrls.wrQLenPdf::22                      0                       # What write queue length does an incoming req see
system.mem_ctrls.wrQLenPdf::23                      0                       # What write queue length does an incoming req see
system.mem_ctrls.wrQLenPdf::24                      0                       # What write queue length does an incoming req see
system.mem_ctrls.wrQLenPdf::25                      0                       # What write queue length does an incoming req see
system.mem_ctrls.wrQLenPdf::26                      0                       # What write queue length does an incoming req see
system.mem_ctrls.wrQLenPdf::27                      0                       # What write queue length does an incoming req see
system.mem_ctrls.wrQLenPdf::28                      0                       # What write queue length does an incoming req see
system.mem_ctrls.wrQLenPdf::29                      0                       # What write queue length does an incoming req see
system.mem_ctrls.wrQLenPdf::30                      0                       # What write queue length does an incoming req see
system.mem_ctrls.wrQLenPdf::31                      0                       # What write queue length does an incoming req see
system.mem_ctrls.wrQLenPdf::32                      0                       # What write queue length does an incoming req see
system.mem_ctrls.wrQLenPdf::33                      0                       # What write queue length does an incoming req see
system.mem_ctrls.wrQLenPdf::34                      0                       # What write queue length does an incoming req see
system.mem_ctrls.wrQLenPdf::35                      0                       # What write queue length does an incoming req see
system.mem_ctrls.wrQLenPdf::36                      0                       # What write queue length does an incoming req see
system.mem_ctrls.wrQLenPdf::37                      0                       # What write queue length does an incoming req see
system.mem_ctrls.wrQLenPdf::38                      0                       # What write queue length does an incoming req see
system.mem_ctrls.wrQLenPdf::39                      0                       # What write queue length does an incoming req see
system.mem_ctrls.wrQLenPdf::40                      0                       # What write queue length does an incoming req see
system.mem_ctrls.wrQLenPdf::41                      0                       # What write queue length does an incoming req see
system.mem_ctrls.wrQLenPdf::42                      0                       # What write queue length does an incoming req see
system.mem_ctrls.wrQLenPdf::43                      0                       # What write queue length does an incoming req see
system.mem_ctrls.wrQLenPdf::44                      0                       # What write queue length does an incoming req see
system.mem_ctrls.wrQLenPdf::45                      0                       # What write queue length does an incoming req see
system.mem_ctrls.wrQLenPdf::46                      0                       # What write queue length does an incoming req see
system.mem_ctrls.wrQLenPdf::47                      0                       # What write queue length does an incoming req see
system.mem_ctrls.wrQLenPdf::48                      0                       # What write queue length does an incoming req see
system.mem_ctrls.wrQLenPdf::49                      0                       # What write queue length does an incoming req see
system.mem_ctrls.wrQLenPdf::50                      0                       # What write queue length does an incoming req see
system.mem_ctrls.wrQLenPdf::51                      0                       # What write queue length does an incoming req see
system.mem_ctrls.wrQLenPdf::52                      0                       # What write queue length does an incoming req see
system.mem_ctrls.wrQLenPdf::53                      0                       # What write queue length does an incoming req see
system.mem_ctrls.wrQLenPdf::54                      0                       # What write queue length does an incoming req see
system.mem_ctrls.wrQLenPdf::55                      0                       # What write queue length does an incoming req see
system.mem_ctrls.wrQLenPdf::56                      0                       # What write queue length does an incoming req see
system.mem_ctrls.wrQLenPdf::57                      0                       # What write queue length does an incoming req see
system.mem_ctrls.wrQLenPdf::58                      0                       # What write queue length does an incoming req see
system.mem_ctrls.wrQLenPdf::59                      0                       # What write queue length does an incoming req see
system.mem_ctrls.wrQLenPdf::60                      0                       # What write queue length does an incoming req see
system.mem_ctrls.wrQLenPdf::61                      0                       # What write queue length does an incoming req see
system.mem_ctrls.wrQLenPdf::62                      0                       # What write queue length does an incoming req see
system.mem_ctrls.wrQLenPdf::63                      0                       # What write queue length does an incoming req see
system.mem_ctrls.totQLat                            0                       # Total ticks spent queuing
system.mem_ctrls.totMemAccLat                       0                       # Total ticks spent from burst creation until serviced by the DRAM
system.mem_ctrls.totBusLat                          0                       # Total ticks spent in databus transfers
system.mem_ctrls.avgQLat                          nan                       # Average queueing delay per DRAM burst
system.mem_ctrls.avgBusLat                        nan                       # Average bus latency per DRAM burst
system.mem_ctrls.avgMemAccLat                     nan                       # Average memory access latency per DRAM burst
system.mem_ctrls.avgRdBW                         0.00                       # Average DRAM read bandwidth in MiByte/s
system.mem_ctrls.avgWrBW                         0.00                       # Average achieved write bandwidth in MiByte/s
system.mem_ctrls.avgRdBWSys                      0.00                       # Average system read bandwidth in MiByte/s
system.mem_ctrls.avgWrBWSys                      0.00                       # Average system write bandwidth in MiByte/s
system.mem_ctrls.peakBW                      12800.00                       # Theoretical peak bandwidth in MiByte/s
system.mem_ctrls.busUtil                         0.00                       # Data bus utilization in percentage
system.mem_ctrls.busUtilRead                     0.00                       # Data bus utilization in percentage for reads
system.mem_ctrls.busUtilWrite                    0.00                       # Data bus utilization in percentage for writes
system.mem_ctrls.avgRdQLen                       0.00                       # Average read queue length when enqueuing
system.mem_ctrls.avgWrQLen                       0.00                       # Average write queue length when enqueuing
system.mem_ctrls.readRowHits                        0                       # Number of row buffer hits during reads
system.mem_ctrls.writeRowHits                       0                       # Number of row buffer hits during writes
system.mem_ctrls.readRowHitRate                   nan                       # Row buffer hit rate for reads
system.mem_ctrls.writeRowHitRate                  nan                       # Row buffer hit rate for writes
system.mem_ctrls.avgGap                           nan                       # Average gap between requests
system.mem_ctrls.pageHitRate                      nan                       # Row buffer hit rate, read and write combined
system.mem_ctrls.memoryStateTime::IDLE   241645568750                       # Time in different power states
system.mem_ctrls.memoryStateTime::REF      8347820000                       # Time in different power states
system.mem_ctrls.memoryStateTime::PRE_PDN            0                       # Time in different power states
system.mem_ctrls.memoryStateTime::ACT               0                       # Time in different power states
system.mem_ctrls.memoryStateTime::ACT_PDN            0                       # Time in different power states
system.membus.throughput                   1062558231                       # Throughput (bytes/s)
system.membus.data_through_bus              265639232                       # Total data (bytes)
system.membus.snoop_data_through_bus                0                       # Total snoop data (bytes)
system.cpu_voltage_domain.voltage                   1                       # Voltage in Volts
system.cpu_clk_domain.clock                       500                       # Clock period in ticks
system.l2.tags.replacements                   2067219                       # number of replacements
system.l2.tags.tagsinuse                 15810.662407                       # Cycle average of tags in use
system.l2.tags.total_refs                          18                       # Total number of references to valid blocks.
system.l2.tags.sampled_refs                   2083092                       # Sample count of references to valid blocks.
system.l2.tags.avg_refs                      0.000009                       # Average number of references to valid blocks.
system.l2.tags.warmup_cycle                         0                       # Cycle when the warmup percentage was hit.
system.l2.tags.occ_blocks::writebacks    15808.973416                       # Average occupied blocks per requestor
system.l2.tags.occ_blocks::cpu.inst          1.313252                       # Average occupied blocks per requestor
system.l2.tags.occ_blocks::cpu.data          0.375738                       # Average occupied blocks per requestor
system.l2.tags.occ_percent::writebacks       0.964903                       # Average percentage of cache occupancy
system.l2.tags.occ_percent::cpu.inst         0.000080                       # Average percentage of cache occupancy
system.l2.tags.occ_percent::cpu.data         0.000023                       # Average percentage of cache occupancy
system.l2.tags.occ_percent::total            0.965006                       # Average percentage of cache occupancy
system.l2.tags.occ_task_id_blocks::1024         15873                       # Occupied blocks per task id
system.l2.tags.age_task_id_blocks_1024::0           83                       # Occupied blocks per task id
system.l2.tags.age_task_id_blocks_1024::1          750                       # Occupied blocks per task id
system.l2.tags.age_task_id_blocks_1024::2         7500                       # Occupied blocks per task id
system.l2.tags.age_task_id_blocks_1024::3         7540                       # Occupied blocks per task id
system.l2.tags.occ_task_id_percent::1024     0.968811                       # Percentage of cache occupancy per task id
system.l2.tags.tag_accesses                  37498356                       # Number of tag accesses
system.l2.tags.data_accesses                 37498356                       # Number of data accesses
system.l2.Writeback_hits::writebacks          2082882                       # number of Writeback hits
system.l2.Writeback_hits::total               2082882                       # number of Writeback hits
system.l2.ReadReq_misses::cpu.inst                178                       # number of ReadReq misses
system.l2.ReadReq_misses::cpu.data                 50                       # number of ReadReq misses
system.l2.ReadReq_misses::total                   228                       # number of ReadReq misses
system.l2.ReadExReq_misses::cpu.data          2083376                       # number of ReadExReq misses
system.l2.ReadExReq_misses::total             2083376                       # number of ReadExReq misses
system.l2.demand_misses::cpu.inst                 178                       # number of demand (read+write) misses
system.l2.demand_misses::cpu.data             2083426                       # number of demand (read+write) misses
system.l2.demand_misses::total                2083604                       # number of demand (read+write) misses
system.l2.overall_misses::cpu.inst                178                       # number of overall misses
system.l2.overall_misses::cpu.data            2083426                       # number of overall misses
system.l2.overall_misses::total               2083604                       # number of overall misses
system.l2.ReadReq_accesses::cpu.inst              178                       # number of ReadReq accesses(hits+misses)
system.l2.ReadReq_accesses::cpu.data               50                       # number of ReadReq accesses(hits+misses)
system.l2.ReadReq_accesses::total                 228                       # number of ReadReq accesses(hits+misses)
system.l2.Writeback_accesses::writebacks      2082882                       # number of Writeback accesses(hits+misses)
system.l2.Writeback_accesses::total           2082882                       # number of Writeback accesses(hits+misses)
system.l2.ReadExReq_accesses::cpu.data        2083376                       # number of ReadExReq accesses(hits+misses)
system.l2.ReadExReq_accesses::total           2083376                       # number of ReadExReq accesses(hits+misses)
system.l2.demand_accesses::cpu.inst               178                       # number of demand (read+write) accesses
system.l2.demand_accesses::cpu.data           2083426                       # number of demand (read+write) accesses
system.l2.demand_accesses::total              2083604                       # number of demand (read+write) accesses
system.l2.overall_accesses::cpu.inst              178                       # number of overall (read+write) accesses
system.l2.overall_accesses::cpu.data          2083426                       # number of overall (read+write) accesses
system.l2.overall_accesses::total             2083604                       # number of overall (read+write) accesses
system.l2.ReadReq_miss_rate::cpu.inst               1                       # miss rate for ReadReq accesses
system.l2.ReadReq_miss_rate::cpu.data               1                       # miss rate for ReadReq accesses
system.l2.ReadReq_miss_rate::total                  1                       # miss rate for ReadReq accesses
system.l2.ReadExReq_miss_rate::cpu.data             1                       # miss rate for ReadExReq accesses
system.l2.ReadExReq_miss_rate::total                1                       # miss rate for ReadExReq accesses
system.l2.demand_miss_rate::cpu.inst                1                       # miss rate for demand accesses
system.l2.demand_miss_rate::cpu.data                1                       # miss rate for demand accesses
system.l2.demand_miss_rate::total                   1                       # miss rate for demand accesses
system.l2.overall_miss_rate::cpu.inst               1                       # miss rate for overall accesses
system.l2.overall_miss_rate::cpu.data               1                       # miss rate for overall accesses
system.l2.overall_miss_rate::total                  1                       # miss rate for overall accesses
system.l2.blocked_cycles::no_mshrs                  0                       # number of cycles access was blocked
system.l2.blocked_cycles::no_targets                0                       # number of cycles access was blocked
system.l2.blocked::no_mshrs                         0                       # number of cycles access was blocked
system.l2.blocked::no_targets                       0                       # number of cycles access was blocked
system.l2.avg_blocked_cycles::no_mshrs            nan                       # average number of cycles each access was blocked
system.l2.avg_blocked_cycles::no_targets          nan                       # average number of cycles each access was blocked
system.l2.fast_writes                               0                       # number of fast writes performed
system.l2.cache_copies                              0                       # number of cache copies performed
system.l2.writebacks::writebacks              2067009                       # number of writebacks
system.l2.writebacks::total                   2067009                       # number of writebacks
system.l2.no_allocate_misses                        0                       # Number of misses that were no-allocate
system.tol2bus.throughput                  1066621724                       # Throughput (bytes/s)
system.tol2bus.data_through_bus             266655104                       # Total data (bytes)
system.tol2bus.snoop_data_through_bus               0                       # Total snoop data (bytes)
system.cpu.apic_clk_domain.clock                 8000                       # Clock period in ticks
system.cpu.workload.num_syscalls                    6                       # Number of system calls
system.cpu.numCycles                        499999388                       # number of cpu cycles simulated
system.cpu.numWorkItemsStarted                      0                       # number of work items this cpu started
system.cpu.numWorkItemsCompleted                    0                       # number of work items this cpu completed
system.cpu.committedInsts                   200000000                       # Number of instructions committed
system.cpu.committedOps                     433332797                       # Number of ops (including micro ops) committed
system.cpu.num_int_alu_accesses             433332647                       # Number of integer alu accesses
system.cpu.num_fp_alu_accesses                    157                       # Number of float alu accesses
system.cpu.num_func_calls                         134                       # number of times a function call or return occured
system.cpu.num_conditional_control_insts     33333323                       # number of instructions that are conditional controls
system.cpu.num_int_insts                    433332647                       # number of integer instructions
system.cpu.num_fp_insts                           157                       # number of float instructions
system.cpu.num_int_register_reads           933330419                       # number of times the integer registers were read
system.cpu.num_int_register_writes          333332883                       # number of times the integer registers were written
system.cpu.num_fp_register_reads                  255                       # number of times the floating registers were read
system.cpu.num_fp_register_writes                 121                       # number of times the floating registers were written
system.cpu.num_cc_register_reads            166667863                       # number of times the CC registers were read
system.cpu.num_cc_register_writes           133333322                       # number of times the CC registers were written
system.cpu.num_mem_refs                     199998127                       # number of memory refs
system.cpu.num_load_insts                   133331834                       # Number of load instructions
system.cpu.num_store_insts                   66666293                       # Number of store instructions
system.cpu.num_idle_cycles                          0                       # Number of idle cycles
system.cpu.num_busy_cycles                  499999388                       # Number of busy cycles
system.cpu.not_idle_fraction                        1                       # Percentage of non-idle cycles
system.cpu.idle_fraction                            0                       # Percentage of idle cycles
system.cpu.Branches                          33333505                       # Number of branches fetched
system.cpu.op_class::No_OpClass                    48      0.00%      0.00% # Class of executed instruction
system.cpu.op_class::IntAlu                 233334466     53.85%     53.85% # Class of executed instruction
system.cpu.op_class::IntMult                        6      0.00%     53.85% # Class of executed instruction
system.cpu.op_class::IntDiv                        21      0.00%     53.85% # Class of executed instruction
system.cpu.op_class::FloatAdd                     129      0.00%     53.85% # Class of executed instruction
system.cpu.op_class::FloatCmp                       0      0.00%     53.85% # Class of executed instruction
system.cpu.op_class::FloatCvt                       0      0.00%     53.85% # Class of executed instruction
system.cpu.op_class::FloatMult                      0      0.00%     53.85% # Class of executed instruction
system.cpu.op_class::FloatDiv                       0      0.00%     53.85% # Class of executed instruction
system.cpu.op_class::FloatSqrt                      0      0.00%     53.85% # Class of executed instruction
system.cpu.op_class::SimdAdd                        0      0.00%     53.85% # Class of executed instruction
system.cpu.op_class::SimdAddAcc                     0      0.00%     53.85% # Class of executed instruction
system.cpu.op_class::SimdAlu                        0      0.00%     53.85% # Class of executed instruction
system.cpu.op_class::SimdCmp                        0      0.00%     53.85% # Class of executed instruction
system.cpu.op_class::SimdCvt                        0      0.00%     53.85% # Class of executed instruction
system.cpu.op_class::SimdMisc                       0      0.00%     53.85% # Class of executed instruction
system.cpu.op_class::SimdMult                       0      0.00%     53.85% # Class of executed instruction
system.cpu.op_class::SimdMultAcc                    0      0.00%     53.85% # Class of executed instruction
system.cpu.op_class::SimdShift                      0      0.00%     53.85% # Class of executed instruction
system.cpu.op_class::SimdShiftAcc                   0      0.00%     53.85% # Class of executed instruction
system.cpu.op_class::SimdSqrt                       0      0.00%     53.85% # Class of executed instruction
system.cpu.op_class::SimdFloatAdd                   0      0.00%     53.85% # Class of executed instruction
system.cpu.op_class::SimdFloatAlu                   0      0.00%     53.85% # Class of executed instruction
system.cpu.op_class::SimdFloatCmp                   0      0.00%     53.85% # Class of executed instruction
system.cpu.op_class::SimdFloatCvt                   0      0.00%     53.85% # Class of executed instruction
system.cpu.op_class::SimdFloatDiv                   0      0.00%     53.85% # Class of executed instruction
system.cpu.op_class::SimdFloatMisc                  0      0.00%     53.85% # Class of executed instruction
system.cpu.op_class::SimdFloatMult                  0      0.00%     53.85% # Class of executed instruction
system.cpu.op_class::SimdFloatMultAcc               0      0.00%     53.85% # Class of executed instruction
system.cpu.op_class::SimdFloatSqrt                  0      0.00%     53.85% # Class of executed instruction
system.cpu.op_class::MemRead                133331834     30.77%     84.62% # Class of executed instruction
system.cpu.op_class::MemWrite                66666293     15.38%    100.00% # Class of executed instruction
system.cpu.op_class::IprAccess                      0      0.00%    100.00% # Class of executed instruction
system.cpu.op_class::InstPrefetch                   0      0.00%    100.00% # Class of executed instruction
system.cpu.op_class::total                  433332797                       # Class of executed instruction
system.cpu.icache.tags.replacements                 0                       # number of replacements
system.cpu.icache.tags.tagsinuse           177.998836                       # Cycle average of tags in use
system.cpu.icache.tags.total_refs           266666413                       # Total number of references to valid blocks.
system.cpu.icache.tags.sampled_refs               178                       # Sample count of references to valid blocks.
system.cpu.icache.tags.avg_refs          1498125.915730                       # Average number of references to valid blocks.
system.cpu.icache.tags.warmup_cycle                 0                       # Cycle when the warmup percentage was hit.
system.cpu.icache.tags.occ_blocks::cpu.inst   177.998836                       # Average occupied blocks per requestor
system.cpu.icache.tags.occ_percent::cpu.inst     0.347654                       # Average percentage of cache occupancy
system.cpu.icache.tags.occ_percent::total     0.347654                       # Average percentage of cache occupancy
system.cpu.icache.tags.occ_task_id_blocks::1024          178                       # Occupied blocks per task id
system.cpu.icache.tags.age_task_id_blocks_1024::4          178                       # Occupied blocks per task id
system.cpu.icache.tags.occ_task_id_percent::1024     0.347656                       # Percentage of cache occupancy per task id
system.cpu.icache.tags.tag_accesses        2133332906                       # Number of tag accesses
system.cpu.icache.tags.data_accesses       2133332906                       # Number of data accesses
system.cpu.icache.ReadReq_hits::cpu.inst    266666413                       # number of ReadReq hits
system.cpu.icache.ReadReq_hits::total       266666413                       # number of ReadReq hits
system.cpu.icache.demand_hits::cpu.inst     266666413                       # number of demand (read+write) hits
system.cpu.icache.demand_hits::total        266666413                       # number of demand (read+write) hits
system.cpu.icache.overall_hits::cpu.inst    266666413                       # number of overall hits
system.cpu.icache.overall_hits::total       266666413                       # number of overall hits
system.cpu.icache.ReadReq_misses::cpu.inst          178                       # number of ReadReq misses
system.cpu.icache.ReadReq_misses::total           178                       # number of ReadReq misses
system.cpu.icache.demand_misses::cpu.inst          178                       # number of demand (read+write) misses
system.cpu.icache.demand_misses::total            178                       # number of demand (read+write) misses
system.cpu.icache.overall_misses::cpu.inst          178                       # number of overall misses
system.cpu.icache.overall_misses::total           178                       # number of overall misses
system.cpu.icache.ReadReq_accesses::cpu.inst    266666591                       # number of ReadReq accesses(hits+misses)
system.cpu.icache.ReadReq_accesses::total    266666591                       # number of ReadReq accesses(hits+misses)
system.cpu.icache.demand_accesses::cpu.inst    266666591                       # number of demand (read+write) accesses
system.cpu.icache.demand_accesses::total    266666591                       # number of demand (read+write) accesses
system.cpu.icache.overall_accesses::cpu.inst    266666591                       # number of overall (read+write) accesses
system.cpu.icache.overall_accesses::total    266666591                       # number of overall (read+write) accesses
system.cpu.icache.ReadReq_miss_rate::cpu.inst     0.000001                       # miss rate for ReadReq accesses
system.cpu.icache.ReadReq_miss_rate::total     0.000001                       # miss rate for ReadReq accesses
system.cpu.icache.demand_miss_rate::cpu.inst     0.000001                       # miss rate for demand accesses
system.cpu.icache.demand_miss_rate::total     0.000001                       # miss rate for demand accesses
system.cpu.icache.overall_miss_rate::cpu.inst     0.000001                       # miss rate for overall accesses
system.cpu.icache.overall_miss_rate::total     0.000001                       # miss rate for overall accesses
system.cpu.icache.blocked_cycles::no_mshrs            0                       # number of cycles access was blocked
system.cpu.icache.blocked_cycles::no_targets            0                       # number of cycles access was blocked
system.cpu.icache.blocked::no_mshrs                 0                       # number of cycles access was blocked
system.cpu.icache.blocked::no_targets               0                       # number of cycles access was blocked
system.cpu.icache.avg_blocked_cycles::no_mshrs          nan                       # average number of cycles each access was blocked
system.cpu.icache.avg_blocked_cycles::no_targets          nan                       # average number of cycles each access was blocked
system.cpu.icache.fast_writes                       0                       # number of fast writes performed
system.cpu.icache.cache_copies                      0                       # number of cache copies performed
system.cpu.icache.no_allocate_misses                0                       # Number of misses that were no-allocate
system.cpu.itb_walker_cache.tags.replacements            0                       # number of replacements
system.cpu.itb_walker_cache.tags.tagsinuse            0                       # Cycle average of tags in use
system.cpu.itb_walker_cache.tags.total_refs            0                       # Total number of references to valid blocks.
system.cpu.itb_walker_cache.tags.sampled_refs            0                       # Sample count of references to valid blocks.
system.cpu.itb_walker_cache.tags.avg_refs          nan                       # Average number of references to valid blocks.
system.cpu.itb_walker_cache.tags.warmup_cycle            0                       # Cycle when the warmup percentage was hit.
system.cpu.itb_walker_cache.tags.tag_accesses            0                       # Number of tag accesses
system.cpu.itb_walker_cache.tags.data_accesses            0                       # Number of data accesses
system.cpu.itb_walker_cache.blocked_cycles::no_mshrs            0                       # number of cycles access was blocked
system.cpu.itb_walker_cache.blocked_cycles::no_targets            0                       # number of cycles access was blocked
system.cpu.itb_walker_cache.blocked::no_mshrs            0                       # number of cycles access was blocked
system.cpu.itb_walker_cache.blocked::no_targets            0                       # number of cycles access was blocked
system.cpu.itb_walker_cache.avg_blocked_cycles::no_mshrs          nan                       # average number of cycles each access was blocked
system.cpu.itb_walker_cache.avg_blocked_cycles::no_targets          nan                       # average number of cycles each access was blocked
system.cpu.itb_walker_cache.fast_writes             0                       # number of fast writes performed
system.cpu.itb_walker_cache.cache_copies            0                       # number of cache copies performed
system.cpu.itb_walker_cache.no_allocate_misses            0                       # Number of misses that were no-allocate
system.cpu.dtb_walker_cache.tags.replacements            0                       # number of replacements
system.cpu.dtb_walker_cache.tags.tagsinuse            0                       # Cycle average of tags in use
system.cpu.dtb_walker_cache.tags.total_refs            0                       # Total number of references to valid blocks.
system.cpu.dtb_walker_cache.tags.sampled_refs            0                       # Sample count of references to valid blocks.
system.cpu.dtb_walker_cache.tags.avg_refs          nan                       # Average number of references to valid blocks.
system.cpu.dtb_walker_cache.tags.warmup_cycle            0                       # Cycle when the warmup percentage was hit.
system.cpu.dtb_walker_cache.tags.tag_accesses            0                       # Number of tag accesses
system.cpu.dtb_walker_cache.tags.data_accesses            0                       # Number of data accesses
system.cpu.dtb_walker_cache.blocked_cycles::no_mshrs            0                       # number of cycles access was blocked
system.cpu.dtb_walker_cache.blocked_cycles::no_targets            0                       # number of cycles access was blocked
system.cpu.dtb_walker_cache.blocked::no_mshrs            0                       # number of cycles access was blocked
system.cpu.dtb_walker_cache.blocked::no_targets            0                       # number of cycles access was blocked
system.cpu.dtb_walker_cache.avg_blocked_cycles::no_mshrs          nan                       # average number of cycles each access was blocked
system.cpu.dtb_walker_cache.avg_blocked_cycles::no_targets          nan                       # average number of cycles each access was blocked
system.cpu.dtb_walker_cache.fast_writes             0                       # number of fast writes performed
system.cpu.dtb_walker_cache.cache_copies            0                       # number of cache copies performed
system.cpu.dtb_walker_cache.no_allocate_misses            0                       # Number of misses that were no-allocate
system.cpu.dcache.tags.replacements           2082914                       # number of replacements
system.cpu.dcache.tags.tagsinuse           511.956878                       # Cycle average of tags in use
system.cpu.dcache.tags.total_refs           197914701                       # Total number of references to valid blocks.
system.cpu.dcache.tags.sampled_refs           2083426                       # Sample count of references to valid blocks.
system.cpu.dcache.tags.avg_refs             94.994831                       # Average number of references to valid blocks.
system.cpu.dcache.tags.warmup_cycle          57822000                       # Cycle when the warmup percentage was hit.
system.cpu.dcache.tags.occ_blocks::cpu.data   511.956878                       # Average occupied blocks per requestor
system.cpu.dcache.tags.occ_percent::cpu.data     0.999916                       # Average percentage of cache occupancy
system.cpu.dcache.tags.occ_percent::total     0.999916                       # Average percentage of cache occupancy
system.cpu.dcache.tags.occ_task_id_blocks::1024          512                       # Occupied blocks per task id
system.cpu.dcache.tags.age_task_id_blocks_1024::0           83                       # Occupied blocks per task id
system.cpu.dcache.tags.age_task_id_blocks_1024::1          428                       # Occupied blocks per task id
system.cpu.dcache.tags.age_task_id_blocks_1024::4            1                       # Occupied blocks per task id
system.cpu.dcache.tags.occ_task_id_percent::1024            1                       # Percentage of cache occupancy per task id
system.cpu.dcache.tags.tag_accesses        1602068442                       # Number of tag accesses
system.cpu.dcache.tags.data_accesses       1602068442                       # Number of data accesses
system.cpu.dcache.ReadReq_hits::cpu.data    133331784                       # number of ReadReq hits
system.cpu.dcache.ReadReq_hits::total       133331784                       # number of ReadReq hits
system.cpu.dcache.WriteReq_hits::cpu.data     64582917                       # number of WriteReq hits
system.cpu.dcache.WriteReq_hits::total       64582917                       # number of WriteReq hits
system.cpu.dcache.demand_hits::cpu.data     197914701                       # number of demand (read+write) hits
system.cpu.dcache.demand_hits::total        197914701                       # number of demand (read+write) hits
system.cpu.dcache.overall_hits::cpu.data    197914701                       # number of overall hits
system.cpu.dcache.overall_hits::total       197914701                       # number of overall hits
system.cpu.dcache.ReadReq_misses::cpu.data           50                       # number of ReadReq misses
system.cpu.dcache.ReadReq_misses::total            50                       # number of ReadReq misses
system.cpu.dcache.WriteReq_misses::cpu.data      2083376                       # number of WriteReq misses
system.cpu.dcache.WriteReq_misses::total      2083376                       # number of WriteReq misses
system.cpu.dcache.demand_misses::cpu.data      2083426                       # number of demand (read+write) misses
system.cpu.dcache.demand_misses::total        2083426                       # number of demand (read+write) misses
system.cpu.dcache.overall_misses::cpu.data      2083426                       # number of overall misses
system.cpu.dcache.overall_misses::total       2083426                       # number of overall misses
system.cpu.dcache.ReadReq_accesses::cpu.data    133331834                       # number of ReadReq accesses(hits+misses)
system.cpu.dcache.ReadReq_accesses::total    133331834                       # number of ReadReq accesses(hits+misses)
system.cpu.dcache.WriteReq_accesses::cpu.data     66666293                       # number of WriteReq accesses(hits+misses)
system.cpu.dcache.WriteReq_accesses::total     66666293                       # number of WriteReq accesses(hits+misses)
system.cpu.dcache.demand_accesses::cpu.data    199998127                       # number of demand (read+write) accesses
system.cpu.dcache.demand_accesses::total    199998127                       # number of demand (read+write) accesses
system.cpu.dcache.overall_accesses::cpu.data    199998127                       # number of overall (read+write) accesses
system.cpu.dcache.overall_accesses::total    199998127                       # number of overall (read+write) accesses
system.cpu.dcache.ReadReq_miss_rate::cpu.data     0.000000                       # miss rate for ReadReq accesses
system.cpu.dcache.ReadReq_miss_rate::total     0.000000                       # miss rate for ReadReq accesses
system.cpu.dcache.WriteReq_miss_rate::cpu.data     0.031251                       # miss rate for WriteReq accesses
system.cpu.dcache.WriteReq_miss_rate::total     0.031251                       # miss rate for WriteReq accesses
system.cpu.dcache.demand_miss_rate::cpu.data     0.010417                       # miss rate for demand accesses
system.cpu.dcache.demand_miss_rate::total     0.010417                       # miss rate for demand accesses
system.cpu.dcache.overall_miss_rate::cpu.data     0.010417                       # miss rate for overall accesses
system.cpu.dcache.overall_miss_rate::total     0.010417                       # miss rate for overall accesses
system.cpu.dcache.blocked_cycles::no_mshrs            0                       # number of cycles access was blocked
system.cpu.dcache.blocked_cycles::no_targets            0                       # number of cycles access was blocked
system.cpu.dcache.blocked::no_mshrs                 0                       # number of cycles access was blocked
system.cpu.dcache.blocked::no_targets               0                       # number of cycles access was blocked
system.cpu.dcache.avg_blocked_cycles::no_mshrs          nan                       # average number of cycles each access was blocked
system.cpu.dcache.avg_blocked_cycles::no_targets          nan                       # average number of cycles each access was blocked
system.cpu.dcache.fast_writes                       0                       # number of fast writes performed
system.cpu.dcache.cache_copies                      0                       # number of cache copies performed
system.cpu.dcache.writebacks::writebacks      2082882                       # number of writebacks
system.cpu.dcache.writebacks::total           2082882                       # number of writebacks
system.cpu.dcache.no_allocate_misses                0                       # Number of misses that were no-allocate

---------- End Simulation Statistics   ----------
